%description:

In this test, packets are produced periodically by an active packet source
(ActivePacketSource). The packets are consumed by a passive packet sink
(PassivePacketSink).

%file: test.ned

import inet.queueing.sink.PassivePacketSink;
import inet.queueing.source.ActivePacketSource;

network TestProducerConsumer
{
    submodules:
        producer: ActivePacketSource {
            @display("p=100,100");
        }
        consumer: PassivePacketSink {
            @display("p=200,100");
        }
    connections:
        producer.out --> consumer.in;
}

%inifile: omnetpp.ini

[General]
network = TestProducerConsumer
sim-time-limit = 10s
cmdenv-event-banners = false
cmdenv-log-prefix = "At %ts: "
*.producer.packetLength = 1B
*.producer.productionInterval = 1s

%# remove formatting
%subst: /\x1B\[[0-9;]*m//

%subst: /\nRunning simulation\.\.\.\n//

%contains-regex: stdout
At 0s: Producing packet, .*?producer-0.*?
At 0s: Consuming packet, .*?producer-0.*?
At 1s: Producing packet, .*?producer-1.*?
At 1s: Consuming packet, .*?producer-1.*?
At 2s: Producing packet, .*?producer-2.*?
At 2s: Consuming packet, .*?producer-2.*?
At 3s: Producing packet, .*?producer-3.*?
At 3s: Consuming packet, .*?producer-3.*?
At 4s: Producing packet, .*?producer-4.*?
At 4s: Consuming packet, .*?producer-4.*?
At 5s: Producing packet, .*?producer-5.*?
At 5s: Consuming packet, .*?producer-5.*?
At 6s: Producing packet, .*?producer-6.*?
At 6s: Consuming packet, .*?producer-6.*?
At 7s: Producing packet, .*?producer-7.*?
At 7s: Consuming packet, .*?producer-7.*?
At 8s: Producing packet, .*?producer-8.*?
At 8s: Consuming packet, .*?producer-8.*?
At 9s: Producing packet, .*?producer-9.*?
At 9s: Consuming packet, .*?producer-9.*?
At 10s: Producing packet, .*?producer-10.*?
At 10s: Consuming packet, .*?producer-10.*?

<!> Simulation time limit reached -- at t=10s
