%description:

In this test, packets are collected periodically by an active packet sink
(ActivePacketSink). The packets pass through a packet gate if it's open,
otherwise packets are not generated. The packets are provided by a passive
packet source (PassivePacketSource).

%file: test.ned

import inet.queueing.gate.PacketGate;
import inet.queueing.sink.ActivePacketSink;
import inet.queueing.source.PassivePacketSource;

network TestProviderCollector
{
    submodules:
        provider: PassivePacketSource {
            @display("p=100,100");
        }
        gate: PacketGate {
            @display("p=200,100");
        }
        collector: ActivePacketSink {
            @display("p=300,100");
        }
    connections:
        provider.out --> gate.in;
        gate.out --> collector.in;
}

%inifile: omnetpp.ini

[General]
network = TestProviderCollector
sim-time-limit = 10s
cmdenv-event-banners = false
cmdenv-log-prefix = "At %ts: "
*.provider.packetLength = 1B
*.collector.collectionInterval = 1s
*.gate.openTime = 3.1s
*.gate.closeTime = 7.2s

%# remove formatting
%subst: /\x1B\[[0-9;]*m//

%subst: /\nRunning simulation\.\.\.\n//

%contains-regex: stdout
At 3\.1s: Opening gate.
At 3\.1s: Providing packet, .*?provider-0.*?
At 3\.1s: Passing through packet, .*?provider-0.*?
At 3\.1s: Collecting packet, .*?provider-0.*?
At 4\.1s: Providing packet, .*?provider-1.*?
At 4\.1s: Passing through packet, .*?provider-1.*?
At 4\.1s: Collecting packet, .*?provider-1.*?
At 5\.1s: Providing packet, .*?provider-2.*?
At 5\.1s: Passing through packet, .*?provider-2.*?
At 5\.1s: Collecting packet, .*?provider-2.*?
At 6\.1s: Providing packet, .*?provider-3.*?
At 6\.1s: Passing through packet, .*?provider-3.*?
At 6\.1s: Collecting packet, .*?provider-3.*?
At 7\.1s: Providing packet, .*?provider-4.*?
At 7\.1s: Passing through packet, .*?provider-4.*?
At 7\.1s: Collecting packet, .*?provider-4.*?
At 7\.2s: Closing gate.
