%description:

In this test, packets are collected periodically by an active packet sink
(ActivePacketSink). The packets pass through a periodic packet gate if it's
open, otherwise packets are not generated. The packets are provided by a
passive packet source (PassivePacketSource).

%file: test.ned

import inet.queueing.gate.PeriodicGate;
import inet.queueing.sink.ActivePacketSink;
import inet.queueing.source.PassivePacketSource;

network TestProviderCollector
{
    submodules:
        provider: PassivePacketSource {
            @display("p=100,100");
        }
        gate: PeriodicGate {
            @display("p=200,100");
        }
        collector: ActivePacketSink {
            @display("p=300,100");
        }
    connections:
        provider.out --> gate.in;
        gate.out --> collector.in;
}

%inifile: omnetpp.ini

[General]
network = TestProviderCollector
sim-time-limit = 11s
cmdenv-event-banners = false
cmdenv-log-prefix = "At %ts: "
*.provider.packetLength = 1B
*.collector.collectionInterval = 1s
*.gate.durations = [1.25s, 2.25s]

%# remove formatting
%subst: /\x1B\[[0-9;]*m//

%subst: /\nRunning simulation\.\.\.\n//

%contains-regex: stdout
At 0s: Providing packet, .*?provider-0.*?
At 0s: Passing through packet, .*?provider-0.*?
At 0s: Collecting packet, .*?provider-0.*?
At 1s: Providing packet, .*?provider-1.*?
At 1s: Passing through packet, .*?provider-1.*?
At 1s: Collecting packet, .*?provider-1.*?
At 1\.25s: Closing gate.
At 3\.5s: Opening gate.
At 3\.5s: Providing packet, .*?provider-2.*?
At 3\.5s: Passing through packet, .*?provider-2.*?
At 3\.5s: Collecting packet, .*?provider-2.*?
At 4\.5s: Providing packet, .*?provider-3.*?
At 4\.5s: Passing through packet, .*?provider-3.*?
At 4\.5s: Collecting packet, .*?provider-3.*?
At 4\.75s: Closing gate.
At 7s: Opening gate.
At 7s: Providing packet, .*?provider-4.*?
At 7s: Passing through packet, .*?provider-4.*?
At 7s: Collecting packet, .*?provider-4.*?
At 8s: Providing packet, .*?provider-5.*?
At 8s: Passing through packet, .*?provider-5.*?
At 8s: Collecting packet, .*?provider-5.*?
At 8\.25s: Closing gate.
At 10\.5s: Opening gate.
At 10\.5s: Providing packet, .*?provider-6.*?
At 10\.5s: Passing through packet, .*?provider-6.*?
At 10\.5s: Collecting packet, .*?provider-6.*?

<!> Simulation time limit reached -- at t=11s

