%description:

In this test, packets are collected periodically by an active packet sink
(ActivePacketSink). The packets are provided by a passive packet source
(PassivePacketSource).
Packets are passed through from the source to the sink by a filter (PacketFilter).
The filter pass through the first 5 packets, other packets are dropped.

%file: test.ned

import inet.queueing.sink.ActivePacketSink;
import inet.queueing.filter.PacketFilter;
import inet.queueing.source.PassivePacketSource;

network TestFilterPA
{
    submodules:
        provider: PassivePacketSource {
            @display("p=100,100");
        }
        filter: PacketFilter {
            @display("p=200,100");
        }
        collector: ActivePacketSink {
            @display("p=300,100");
        }
    connections:
        provider.out --> filter.in;
        filter.out --> collector.in;
}

%file: Test.cc
#include <string.h>
#include "inet/queueing/function/PacketFilterFunction.h"
#include "inet/common/packet/Packet.h"

using namespace inet;

static bool testFilter(const Packet *packet)
{
    const char *name = packet->getName();
    return strncmp(name, "provider-", 9)==0 && name[9] < '5' && name[10] == '\0';
}

Register_Packet_Filter_Function(@TESTNAME@TestFilter, testFilter);

%inifile: omnetpp.ini

[General]
network = TestFilterPA
sim-time-limit = 10s
cmdenv-event-banners = false
*.provider.packetLength = 1B
*.provider.providingInterval = 0.5s
*.collector.collectionInterval = 1s
*.filter.filterClass = "@TESTNAME@TestFilter"
*.filter.backpressure = true

%# remove formatting
%subst: /\x1B\[[0-9;]*m//

%subst: /\nRunning simulation\.\.\.\n//

%contains-regex: stdout
Providing packet, .*?provider-0.*?
Passing through packet, .*?provider-0.*?
Collecting packet, .*?provider-0.*?
Providing packet, .*?provider-1.*?
Passing through packet, .*?provider-1.*?
Collecting packet, .*?provider-1.*?
Providing packet, .*?provider-2.*?
Passing through packet, .*?provider-2.*?
Collecting packet, .*?provider-2.*?
Providing packet, .*?provider-3.*?
Passing through packet, .*?provider-3.*?
Collecting packet, .*?provider-3.*?
Providing packet, .*?provider-4.*?
Passing through packet, .*?provider-4.*?
Collecting packet, .*?provider-4.*?

<!> Simulation time limit reached -- at t=10s

%not-contains-regex: stdout
Providing packet, .*?provider-5.*?

%not-contains-regex: stdout
Collecting packet, .*?provider-5.*?
